.model QCA3046 NPN (IS=10e-15 BF=145.7 VAR=1.00E2 IKF=46.7E-03 VAF=1.00e02 ISE=114.286E-15 NE=1.48 BR=0.1 ISC=10.005e-15 NC=2 IKR=10e-3 RC=10 MJC=.333 VJC=.75 CJE=1.02e-12 TR=10e-9 TF=277.01e-12)
